15
xyz file generated with QUBEKit.
C        0.5367440947    0.9016169456   -0.1212673733    0.022820
C        0.9271730802   -0.5888782727   -0.0865773702    0.022820
O       -0.3197450635   -1.2721030672   -0.0498409677   -0.067886
X       -0.3569047303   -1.8459389823    0.4367548414   -0.127138
X       -0.4415727803   -1.7482733775   -0.6206858002   -0.127138
C       -1.3150094435   -0.2933216533    0.1202493106    0.226039
O       -0.8316542693    0.8729595810   -0.4803797119   -0.068551
X       -1.2221753974    1.4948117663   -0.3375469983   -0.126805
X       -0.9818410076    0.9461267830   -1.2095563572   -0.126805
H        0.6622051843    1.3694469565    0.8641101952    0.069982
H        1.0782649233    1.4815490677   -0.8675329681    0.069982
H        1.5255914138   -0.8360971598    0.7957038156    0.069982
H        1.4635086519   -0.9028797154   -0.9846489799    0.069982
H       -2.2274249245   -0.6093341482   -0.3847295967    0.046358
H       -1.4996536525   -0.1229585448    1.1949136464    0.046358
